I"ç/Users/paul/Development/labs/Module%202/rails/rails-dynamic-request-readme-web-103017/app/assets/javascripts/posts.coffee?type=application/javascript&pipeline=self&id=592083d2b8bb68b1acf32ea1eafe1e11d0fe13915cbb25e06be3df11d70b4fa8:ET