I"é/Users/paul/Development/labs/Module%202/rails/rails-dynamic-request-readme-web-103017/app/assets/javascripts/application.js?type=application/javascript&pipeline=self&id=fca24eb8f830fcc1e97ecd859a98c6a9a1cf7e8e2df0a27f9380925aad26da3c:ET