I"×/Users/paul/Development/labs/Module%202/rails/rails-dynamic-request-readme-web-103017/app/assets/stylesheets/posts.scss?type=text/css&pipeline=self&id=0650352aa88a1d84973bcaecca45081f0940298c88a96779d73c7bef50bae216:ET