[o:Set:
@hash}	I"environment-version:ETTI"environment-paths;TTI"Lprocessors:type=text/css&file_type=text/css&engines=.scss&pipeline=self;TTI"…file-digest:///Users/paul/Development/labs/Module%202/rails/rails-dynamic-request-readme-web-103017/app/assets/stylesheets/posts.scss;TTF