I"Û/Users/paul/Development/labs/Module%202/rails/rails-dynamic-request-readme-web-103017/app/assets/javascripts/application.js?type=application/javascript&id=08ff710b9b42e0bf4df37d221c025f5c0e501127e15ebb65be245c97345c457b:ET