[o:Set:
@hash}	I"environment-version:ETTI"environment-paths;TTI"jprocessors:type=application/javascript&file_type=application/javascript&engines=.coffee&pipeline=self;TTI"‡file-digest:///Users/paul/Development/labs/Module%202/rails/rails-dynamic-request-readme-web-103017/app/assets/javascripts/posts.coffee;TTF