I"Ü/Users/paul/Development/labs/Module%202/rails/rails-dynamic-request-readme-web-103017/app/assets/stylesheets/application.css?type=text/css&pipeline=self&id=7bf4583484e2aaa3b47386a7de9e570afc97742dae4441bdd30b5cc7798e5bbf:ET