I"Î/Users/paul/Development/labs/Module%202/rails/rails-dynamic-request-readme-web-103017/app/assets/stylesheets/application.css?type=text/css&id=9493e16ce95342bcf72c17f6bf099a6520173eb8ac7909c4faa7922658a9561b:ET